opendss/Feeder_1/LineCode.txt
! Subset of available target linecodes, which are closest to the original ones in terms of positive sequence impedance
! -------------------------------------------------------------------------------------------------------------------------------------------------------------------------------------------------------------------------------------------------------------------------------------------------------------------------------------------
! original name: BS 5467 1997 table 10 25 (50 Hz)
New LineCode.LC2 nphases=4 Units=km
~ Rmatrix=(0.9592895406852648 0.23168654068526479 0.23129854068526476 0.23169454068526477 | 0.23168654068526479 0.9592795406852648 0.23168654068526479 0.23129654068526478 | 0.23129854068526476 0.23168654068526479 0.9592905406852648 0.23169554068526477 | 0.23169454068526477 0.23129654068526478 0.23169554068526477 0.9592965406852648)
~ Xmatrix=(0.739751735790135 0.6673807357901349 0.6430187357901349 0.667405735790135 | 0.6673807357901349 0.7397187357901349 0.667379735790135 0.6430117357901349 | 0.6430187357901349 0.667379735790135 0.7397647357901349 0.6674047357901349 | 0.667405735790135 0.6430117357901349 0.6674047357901349 0.739778735790135)
~ Cmatrix=(0.0 0.0 0.0 0.0 | 0.0 0.0 0.0 0.0 | 0.0 0.0 0.0 0.0 | 0.0 0.0 0.0 0.0)

! original name: BS 5467 1997 table 10 35 (50 Hz)
New LineCode.LC3 nphases=4 Units=km
~ Rmatrix=(0.7710898110209621 0.2465698110209621 0.2460118110209621 0.24656681102096212 | 0.2465698110209621 0.7711468110209622 0.2466218110209621 0.24601281102096212 | 0.2460118110209621 0.2466218110209621 0.7711938110209621 0.24661881102096211 | 0.24656681102096212 0.24601281102096212 0.24661881102096211 0.7711408110209621)
~ Xmatrix=(0.7078895114426766 0.6383435114426766 0.6141895114426766 0.6383375114426767 | 0.6383435114426766 0.7080435114426766 0.6384825114426766 0.6141955114426767 | 0.6141895114426766 0.6384825114426766 0.7081705114426766 0.6384705114426766 | 0.6383375114426767 0.6141955114426767 0.6384705114426766 0.7080275114426766)
~ Cmatrix=(0.0 0.0 0.0 0.0 | 0.0 0.0 0.0 0.0 | 0.0 0.0 0.0 0.0 | 0.0 0.0 0.0 0.0)

! original name: BS 5467 1997 table 10 70 (50 Hz)
New LineCode.LC4 nphases=4 Units=km
~ Rmatrix=(0.5643923515458874 0.2945514767230663 0.2933874767230663 0.2945233515458874 | 0.2945514767230663 0.5644766019371148 0.29460460193711474 0.2933894767230663 | 0.2933874767230663 0.29460460193711474 0.5644996019371148 0.2945764767230663 | 0.2945233515458874 0.2933894767230663 0.2945764767230663 0.5644203515458874)
~ Xmatrix=(0.5883153159279138 0.5209253296470171 0.4969653296470171 0.5208813159279138 | 0.5209253296470171 0.5884633433307894 0.5210123433307894 0.49696632964701715 | 0.4969653296470171 0.5210123433307894 0.5885053433307894 0.5209683296470171 | 0.5208813159279138 0.49696632964701715 0.5209683296470171 0.5883693159279137)
~ Cmatrix=(0.0 0.0 0.0 0.0 | 0.0 0.0 0.0 0.0 | 0.0 0.0 0.0 0.0 | 0.0 0.0 0.0 0.0)

! original name: BS 6480 1988 table 17 Cu 16 (50 Hz)
New LineCode.LC6 nphases=4 Units=km
~ Rmatrix=(2.275110332819354 1.1225363328193543 1.1217103328193543 1.1225373328193542 | 1.1225363328193543 2.275110332819354 1.1225363328193543 1.1217103328193543 | 1.1217103328193543 1.1225363328193543 2.275111332819354 1.1225373328193542 | 1.1225373328193542 1.1217103328193543 1.1225373328193542 2.275111332819354)
~ Xmatrix=(1.046570816522671 0.962102816522671 0.932128816522671 0.9621038165226711 | 0.962102816522671 1.046571816522671 0.962102816522671 0.932128816522671 | 0.932128816522671 0.962102816522671 1.046573816522671 0.962102816522671 | 0.9621038165226711 0.932128816522671 0.962102816522671 1.046576816522671)
~ Cmatrix=(0.0 0.0 0.0 0.0 | 0.0 0.0 0.0 0.0 | 0.0 0.0 0.0 0.0 | 0.0 0.0 0.0 0.0)
! -------------------------------------------------------------------------------------------------------------------------------------------------------------------------------------------------------------------------------------------------------------------------------------------------------------------------------------------