opendss/Feeder_1/Lines.txt
! Imported from Lines.txt, with modified linecodes
! ----------------------------------------------------------------------------------------------
New Line.LINE1 Bus1=1.1.2.3.4 Bus2=2.1.2.3.4 phases=4 Linecode=LC3 Length=0.25109 Units=m
New Line.LINE2 Bus1=2.1.2.3.4 Bus2=3.1.2.3.4 phases=4 Linecode=LC3 Length=0.048466 Units=m
New Line.LINE3 Bus1=3.1.2.3.4 Bus2=4.1.2.3.4 phases=4 Linecode=LC3 Length=0.054999 Units=m
New Line.LINE4 Bus1=4.1.2.3.4 Bus2=5.1.2.3.4 phases=4 Linecode=LC3 Length=0.048167 Units=m
New Line.LINE5 Bus1=5.1.2.3.4 Bus2=6.1.2.3.4 phases=4 Linecode=LC3 Length=0.046141 Units=m
New Line.LINE6 Bus1=6.1.2.3.4 Bus2=7.1.2.3.4 phases=4 Linecode=LC3 Length=0.043463 Units=m
New Line.LINE7 Bus1=7.1.2.3.4 Bus2=8.1.2.3.4 phases=4 Linecode=LC3 Length=0.061659 Units=m
New Line.LINE8 Bus1=8.1.2.3.4 Bus2=9.1.2.3.4 phases=4 Linecode=LC3 Length=0.030017 Units=m
New Line.LINE9 Bus1=9.1.2.3.4 Bus2=10.1.2.3.4 phases=4 Linecode=LC3 Length=0.036223 Units=m
New Line.LINE10 Bus1=10.1.2.3.4 Bus2=11.1.2.3.4 phases=4 Linecode=LC3 Length=3.3729 Units=m
New Line.LINE11 Bus1=11.1.2.3.4 Bus2=12.1.2.3.4 phases=4 Linecode=LC3 Length=0.090378 Units=m
New Line.LINE12 Bus1=12.1.2.3.4 Bus2=13.1.2.3.4 phases=4 Linecode=LC3 Length=0.08071 Units=m
New Line.LINE13 Bus1=13.1.2.3.4 Bus2=14.1.2.3.4 phases=4 Linecode=LC3 Length=0.082806 Units=m
New Line.LINE14 Bus1=14.1.2.3.4 Bus2=15.1.2.3.4 phases=4 Linecode=LC3 Length=0.49759 Units=m
New Line.LINE15 Bus1=15.1.2.3.4 Bus2=16.1.2.3.4 phases=4 Linecode=LC3 Length=2.7717 Units=m
New Line.LINE16 Bus1=16.1.2.3.4 Bus2=17.1.2.3.4 phases=4 Linecode=LC3 Length=2.2246 Units=m
New Line.LINE17 Bus1=17.1.2.3.4 Bus2=18.1.2.3.4 phases=4 Linecode=LC3 Length=2.5079 Units=m
New Line.LINE18 Bus1=18.1.2.3.4 Bus2=19.1.2.3.4 phases=4 Linecode=LC3 Length=1.1208 Units=m
New Line.LINE19 Bus1=19.1.2.3.4 Bus2=20.1.2.3.4 phases=4 Linecode=LC3 Length=9.9483 Units=m
New Line.LINE20 Bus1=20.1.2.3.4 Bus2=21.1.2.3.4 phases=4 Linecode=LC3 Length=0.60681 Units=m
New Line.LINE21 Bus1=21.1.2.3.4 Bus2=22.1.2.3.4 phases=4 Linecode=LC3 Length=0.37184 Units=m
New Line.LINE22 Bus1=22.1.2.3.4 Bus2=23.1.2.3.4 phases=4 Linecode=LC3 Length=0.52667 Units=m
New Line.LINE23 Bus1=23.1.2.3.4 Bus2=24.1.2.3.4 phases=4 Linecode=LC3 Length=0.077877 Units=m
New Line.LINE24 Bus1=24.1.2.3.4 Bus2=25.1.2.3.4 phases=4 Linecode=LC3 Length=0.1005 Units=m
New Line.LINE25 Bus1=25.1.2.3.4 Bus2=26.1.2.3.4 phases=4 Linecode=LC3 Length=0.13665 Units=m
New Line.LINE26 Bus1=26.1.2.3.4 Bus2=27.1.2.3.4 phases=4 Linecode=LC3 Length=0.17021 Units=m
New Line.LINE27 Bus1=27.1.2.3.4 Bus2=28.1.2.3.4 phases=4 Linecode=LC3 Length=0.09586 Units=m
New Line.LINE28 Bus1=28.1.2.3.4 Bus2=29.1.2.3.4 phases=4 Linecode=LC3 Length=0.073825 Units=m
New Line.LINE29 Bus1=29.1.2.3.4 Bus2=30.1.2.3.4 phases=4 Linecode=LC3 Length=0.11507 Units=m
New Line.LINE30 Bus1=30.1.2.3.4 Bus2=31.1.2.3.4 phases=4 Linecode=LC3 Length=0.28185 Units=m
New Line.LINE31 Bus1=31.1.2.3.4 Bus2=32.1.2.3.4 phases=4 Linecode=LC3 Length=0.59096 Units=m
New Line.LINE32 Bus1=32.1.2.3.4 Bus2=33.1.2.3.4 phases=4 Linecode=LC3 Length=0.40048 Units=m
New Line.LINE33 Bus1=33.1.2.3.4 Bus2=34.1.2.3.4 phases=4 Linecode=LC4 Length=3.069 Units=m
New Line.LINE34 Bus1=34.1.2.3.4 Bus2=35.1.2.3.4 phases=4 Linecode=LC6 Length=0.38009 Units=m
New Line.LINE35 Bus1=34.1.2.3.4 Bus2=36.1.2.3.4 phases=4 Linecode=LC4 Length=13.3501 Units=m
New Line.LINE36 Bus1=35.1.2.3.4 Bus2=37.1.2.3.4 phases=4 Linecode=LC6 Length=0.17214 Units=m
New Line.LINE37 Bus1=36.1.2.3.4 Bus2=38.1.2.3.4 phases=4 Linecode=LC2 Length=0.28954 Units=m
New Line.LINE38 Bus1=36.1.2.3.4 Bus2=39.1.2.3.4 phases=4 Linecode=LC4 Length=1.0184 Units=m
New Line.LINE39 Bus1=37.1.2.3.4 Bus2=40.1.2.3.4 phases=4 Linecode=LC6 Length=0.1228 Units=m
New Line.LINE40 Bus1=38.1.2.3.4 Bus2=41.1.2.3.4 phases=4 Linecode=LC2 Length=0.23424 Units=m
New Line.LINE41 Bus1=39.1.2.3.4 Bus2=42.1.2.3.4 phases=4 Linecode=LC4 Length=0.23902 Units=m
New Line.LINE42 Bus1=40.1.2.3.4 Bus2=43.1.2.3.4 phases=4 Linecode=LC6 Length=0.097417 Units=m
New Line.LINE43 Bus1=41.1.2.3.4 Bus2=44.1.2.3.4 phases=4 Linecode=LC2 Length=0.35396 Units=m
New Line.LINE44 Bus1=42.1.2.3.4 Bus2=45.1.2.3.4 phases=4 Linecode=LC4 Length=0.15403 Units=m
New Line.LINE45 Bus1=43.1.2.3.4 Bus2=46.1.2.3.4 phases=4 Linecode=LC6 Length=0.10521 Units=m
New Line.LINE46 Bus1=44.1.2.3.4 Bus2=47.1.2.3.4 phases=4 Linecode=LC2 Length=0.25602 Units=m
New Line.LINE47 Bus1=45.1.2.3.4 Bus2=48.1.2.3.4 phases=4 Linecode=LC4 Length=0.10402 Units=m
New Line.LINE48 Bus1=46.1.2.3.4 Bus2=49.1.2.3.4 phases=4 Linecode=LC6 Length=7.2866 Units=m
New Line.LINE49 Bus1=47.1.2.3.4 Bus2=50.1.2.3.4 phases=4 Linecode=LC2 Length=0.55258 Units=m
New Line.LINE50 Bus1=48.1.2.3.4 Bus2=51.1.2.3.4 phases=4 Linecode=LC4 Length=0.1333 Units=m
New Line.LINE51 Bus1=49.1.2.3.4 Bus2=52.1.2.3.4 phases=4 Linecode=LC6 Length=6.2443 Units=m
New Line.LINE52 Bus1=50.1.2.3.4 Bus2=53.1.2.3.4 phases=4 Linecode=LC2 Length=0.5228 Units=m
New Line.LINE53 Bus1=51.1.2.3.4 Bus2=54.1.2.3.4 phases=4 Linecode=LC4 Length=0.19167 Units=m
New Line.LINE54 Bus1=52.1.2.3.4 Bus2=55.1.2.3.4 phases=4 Linecode=LC6 Length=3.8601 Units=m
New Line.LINE55 Bus1=52.1.2.3.4 Bus2=56.1.2.3.4 phases=4 Linecode=LC6 Length=0.4327 Units=m
New Line.LINE56 Bus1=53.1.2.3.4 Bus2=57.1.2.3.4 phases=4 Linecode=LC2 Length=0.24286 Units=m
New Line.LINE57 Bus1=54.1.2.3.4 Bus2=58.1.2.3.4 phases=4 Linecode=LC4 Length=0.2103 Units=m
New Line.LINE58 Bus1=56.1.2.3.4 Bus2=59.1.2.3.4 phases=4 Linecode=LC6 Length=0.069894 Units=m
New Line.LINE59 Bus1=57.1.2.3.4 Bus2=60.1.2.3.4 phases=4 Linecode=LC2 Length=0.17204 Units=m
New Line.LINE60 Bus1=58.1.2.3.4 Bus2=61.1.2.3.4 phases=4 Linecode=LC4 Length=0.28006 Units=m
New Line.LINE61 Bus1=59.1.2.3.4 Bus2=62.1.2.3.4 phases=4 Linecode=LC6 Length=0.058 Units=m
New Line.LINE62 Bus1=60.1.2.3.4 Bus2=63.1.2.3.4 phases=4 Linecode=LC2 Length=0.38774 Units=m
New Line.LINE63 Bus1=61.1.2.3.4 Bus2=64.1.2.3.4 phases=4 Linecode=LC4 Length=0.1063 Units=m
New Line.LINE64 Bus1=62.1.2.3.4 Bus2=65.1.2.3.4 phases=4 Linecode=LC6 Length=0.041 Units=m
New Line.LINE65 Bus1=63.1.2.3.4 Bus2=66.1.2.3.4 phases=4 Linecode=LC2 Length=0.37353 Units=m
New Line.LINE66 Bus1=64.1.2.3.4 Bus2=67.1.2.3.4 phases=4 Linecode=LC4 Length=0.10791 Units=m
New Line.LINE67 Bus1=65.1.2.3.4 Bus2=68.1.2.3.4 phases=4 Linecode=LC6 Length=0.14831 Units=m
New Line.LINE68 Bus1=66.1.2.3.4 Bus2=69.1.2.3.4 phases=4 Linecode=LC2 Length=0.64039 Units=m
New Line.LINE69 Bus1=67.1.2.3.4 Bus2=70.1.2.3.4 phases=4 Linecode=LC4 Length=5.6452 Units=m
New Line.LINE70 Bus1=68.1.2.3.4 Bus2=71.1.2.3.4 phases=4 Linecode=LC6 Length=4.6564 Units=m
New Line.LINE71 Bus1=69.1.2.3.4 Bus2=72.1.2.3.4 phases=4 Linecode=LC2 Length=1.6055 Units=m
New Line.LINE72 Bus1=70.1.2.3.4 Bus2=73.1.2.3.4 phases=4 Linecode=LC4 Length=3.1266 Units=m
New Line.LINE73 Bus1=71.1.2.3.4 Bus2=74.1.2.3.4 phases=4 Linecode=LC6 Length=0.12932 Units=m
New Line.LINE74 Bus1=72.1.2.3.4 Bus2=75.1.2.3.4 phases=4 Linecode=LC2 Length=4.8539 Units=m
New Line.LINE75 Bus1=74.1.2.3.4 Bus2=76.1.2.3.4 phases=4 Linecode=LC6 Length=0.09868 Units=m
New Line.LINE76 Bus1=75.1.2.3.4 Bus2=77.1.2.3.4 phases=4 Linecode=LC2 Length=2.477 Units=m
New Line.LINE77 Bus1=76.1.2.3.4 Bus2=78.1.2.3.4 phases=4 Linecode=LC6 Length=0.11727 Units=m
New Line.LINE78 Bus1=77.1.2.3.4 Bus2=79.1.2.3.4 phases=4 Linecode=LC6 Length=2.0079 Units=m
New Line.LINE79 Bus1=77.1.2.3.4 Bus2=80.1.2.3.4 phases=4 Linecode=LC2 Length=0.92265 Units=m
New Line.LINE80 Bus1=78.1.2.3.4 Bus2=81.1.2.3.4 phases=4 Linecode=LC6 Length=0.19277 Units=m
New Line.LINE81 Bus1=79.1.2.3.4 Bus2=82.1.2.3.4 phases=4 Linecode=LC6 Length=0.18357 Units=m
New Line.LINE82 Bus1=80.1.2.3.4 Bus2=83.1.2.3.4 phases=4 Linecode=LC2 Length=3.0745 Units=m
New Line.LINE83 Bus1=81.1.2.3.4 Bus2=84.1.2.3.4 phases=4 Linecode=LC6 Length=0.15312 Units=m
New Line.LINE84 Bus1=82.1.2.3.4 Bus2=85.1.2.3.4 phases=4 Linecode=LC6 Length=0.16926 Units=m
New Line.LINE85 Bus1=83.1.2.3.4 Bus2=86.1.2.3.4 phases=4 Linecode=LC2 Length=5.8298 Units=m
New Line.LINE86 Bus1=84.1.2.3.4 Bus2=87.1.2.3.4 phases=4 Linecode=LC6 Length=5.3411 Units=m
New Line.LINE87 Bus1=85.1.2.3.4 Bus2=88.1.2.3.4 phases=4 Linecode=LC6 Length=0.12822 Units=m
New Line.LINE88 Bus1=86.1.2.3.4 Bus2=89.1.2.3.4 phases=4 Linecode=LC2 Length=3.6272 Units=m
New Line.LINE89 Bus1=88.1.2.3.4 Bus2=90.1.2.3.4 phases=4 Linecode=LC6 Length=0.19516 Units=m
New Line.LINE90 Bus1=89.1.2.3.4 Bus2=91.1.2.3.4 phases=4 Linecode=LC2 Length=0.081249 Units=m
New Line.LINE91 Bus1=89.1.2.3.4 Bus2=92.1.2.3.4 phases=4 Linecode=LC2 Length=0.44002 Units=m
New Line.LINE92 Bus1=91.1.2.3.4 Bus2=93.1.2.3.4 phases=4 Linecode=LC2 Length=0.085843 Units=m
New Line.LINE93 Bus1=92.1.2.3.4 Bus2=94.1.2.3.4 phases=4 Linecode=LC2 Length=5.3325 Units=m
New Line.LINE94 Bus1=93.1.2.3.4 Bus2=95.1.2.3.4 phases=4 Linecode=LC2 Length=0.086 Units=m
New Line.LINE95 Bus1=94.1.2.3.4 Bus2=96.1.2.3.4 phases=4 Linecode=LC6 Length=6.8778 Units=m
New Line.LINE96 Bus1=94.1.2.3.4 Bus2=97.1.2.3.4 phases=4 Linecode=LC2 Length=5.3315 Units=m
New Line.LINE97 Bus1=95.1.2.3.4 Bus2=98.1.2.3.4 phases=4 Linecode=LC2 Length=0.086313 Units=m
New Line.LINE98 Bus1=96.1.2.3.4 Bus2=99.1.2.3.4 phases=4 Linecode=LC6 Length=5.3558 Units=m
New Line.LINE99 Bus1=96.1.2.3.4 Bus2=100.1.2.3.4 phases=4 Linecode=LC6 Length=0.50818 Units=m
New Line.LINE100 Bus1=97.1.2.3.4 Bus2=101.1.2.3.4 phases=4 Linecode=LC2 Length=5.0837 Units=m
New Line.LINE101 Bus1=98.1.2.3.4 Bus2=102.1.2.3.4 phases=4 Linecode=LC2 Length=0.085704 Units=m
New Line.LINE102 Bus1=100.1.2.3.4 Bus2=103.1.2.3.4 phases=4 Linecode=LC6 Length=0.14723 Units=m
New Line.LINE103 Bus1=101.1.2.3.4 Bus2=104.1.2.3.4 phases=4 Linecode=LC6 Length=0.067465 Units=m
New Line.LINE104 Bus1=101.1.2.3.4 Bus2=105.1.2.3.4 phases=4 Linecode=LC2 Length=2.1036 Units=m
New Line.LINE105 Bus1=102.1.2.3.4 Bus2=106.1.2.3.4 phases=4 Linecode=LC2 Length=0.086354 Units=m
New Line.LINE106 Bus1=103.1.2.3.4 Bus2=107.1.2.3.4 phases=4 Linecode=LC6 Length=0.10046 Units=m
New Line.LINE107 Bus1=104.1.2.3.4 Bus2=108.1.2.3.4 phases=4 Linecode=LC6 Length=0.067365 Units=m
New Line.LINE108 Bus1=105.1.2.3.4 Bus2=109.1.2.3.4 phases=4 Linecode=LC2 Length=5.5094 Units=m
New Line.LINE109 Bus1=107.1.2.3.4 Bus2=110.1.2.3.4 phases=4 Linecode=LC6 Length=0.080056 Units=m
New Line.LINE110 Bus1=108.1.2.3.4 Bus2=111.1.2.3.4 phases=4 Linecode=LC6 Length=0.06619 Units=m
New Line.LINE111 Bus1=109.1.2.3.4 Bus2=112.1.2.3.4 phases=4 Linecode=LC2 Length=0.24035 Units=m
New Line.LINE112 Bus1=110.1.2.3.4 Bus2=113.1.2.3.4 phases=4 Linecode=LC6 Length=0.072561 Units=m
New Line.LINE113 Bus1=111.1.2.3.4 Bus2=114.1.2.3.4 phases=4 Linecode=LC6 Length=0.06791 Units=m
New Line.LINE114 Bus1=112.1.2.3.4 Bus2=115.1.2.3.4 phases=4 Linecode=LC2 Length=1.3626 Units=m
New Line.LINE115 Bus1=113.1.2.3.4 Bus2=116.1.2.3.4 phases=4 Linecode=LC6 Length=0.12146 Units=m
New Line.LINE116 Bus1=114.1.2.3.4 Bus2=117.1.2.3.4 phases=4 Linecode=LC6 Length=0.066211 Units=m
New Line.LINE117 Bus1=116.1.2.3.4 Bus2=118.1.2.3.4 phases=4 Linecode=LC6 Length=4.3578 Units=m
New Line.LINE118 Bus1=117.1.2.3.4 Bus2=119.1.2.3.4 phases=4 Linecode=LC6 Length=0.067425 Units=m
New Line.LINE119 Bus1=118.1.2.3.4 Bus2=120.1.2.3.4 phases=4 Linecode=LC6 Length=0.1419 Units=m
New Line.LINE120 Bus1=119.1.2.3.4 Bus2=121.1.2.3.4 phases=4 Linecode=LC6 Length=0.067178 Units=m
New Line.LINE121 Bus1=120.1.2.3.4 Bus2=122.1.2.3.4 phases=4 Linecode=LC6 Length=0.15284 Units=m
New Line.LINE122 Bus1=121.1.2.3.4 Bus2=123.1.2.3.4 phases=4 Linecode=LC6 Length=0.066852 Units=m
New Line.LINE123 Bus1=122.1.2.3.4 Bus2=124.1.2.3.4 phases=4 Linecode=LC6 Length=0.132 Units=m
New Line.LINE124 Bus1=123.1.2.3.4 Bus2=125.1.2.3.4 phases=4 Linecode=LC6 Length=0.067623 Units=m
New Line.LINE125 Bus1=124.1.2.3.4 Bus2=126.1.2.3.4 phases=4 Linecode=LC6 Length=0.17612 Units=m
New Line.LINE126 Bus1=125.1.2.3.4 Bus2=127.1.2.3.4 phases=4 Linecode=LC6 Length=0.06694 Units=m
New Line.LINE127 Bus1=126.1.2.3.4 Bus2=128.1.2.3.4 phases=4 Linecode=LC6 Length=0.22769 Units=m
New Line.LINE128 Bus1=128.1.2.3.4 Bus2=129.1.2.3.4 phases=4 Linecode=LC6 Length=0.28679 Units=m
New Line.LINE129 Bus1=129.1.2.3.4 Bus2=130.1.2.3.4 phases=4 Linecode=LC6 Length=4.835 Units=m
! ----------------------------------------------------------------------------------------------