opendss/Feeder_1/Loads.txt
! Imported from Loads.txt, with modified neutral terminal
! ---------------------------------------------------------------------
New Load.LOAD1 Phases=1 Bus1=55.1.4 kV=0.23 kW=1 PF=0.95 Daily=Shape_1
New Load.LOAD2 Phases=1 Bus1=87.1.4 kV=0.23 kW=1 PF=0.95 Daily=Shape_2
New Load.LOAD3 Phases=1 Bus1=99.3.4 kV=0.23 kW=1 PF=0.95 Daily=Shape_3
New Load.LOAD4 Phases=1 Bus1=130.3.4 kV=0.23 kW=1 PF=0.95 Daily=Shape_4
! ---------------------------------------------------------------------